Mass spectrum: Phantolide; GC-EI-FT; MS; Positive
Name: Phantolide
Name: 6-Acetyl-1,1,2,3,5-hexamethyldihydroindene
Class: Non-Natural Product; Polycyclic musk
Formula: C17H24O
Exact mass: 244.18272
SMILES: CC1C(C2=C(C1(C)C)C=C(C(=C2)C)C(=O)C)(C)C
Instrument: Thermo Scientific Q Exactive GC Hybrid Quadrupol-Orbitrap
Instrument type: GC-EI-FT
Ms type: MS
Ion mode: POSITIVE
Base peak: 229.1586
m/z	relative intensity
50.0153	0.992
51.02295	6.072
51.63386	0.56
51.63915	1.734
52.01825	0.66
52.03078	1.567
53.03861	6.744
54.03384	2.02
54.04195	0.75
54.04643	2.944
54.40496	0.575
55.01787	14.631
55.05012	0.591
55.05426	33.568
55.31394	0.538
55.41657	0.668
56.02119	0.969
56.04948	1.882
56.05758	1.669
56.06207	11.722
57.03352	3.004
57.0573	0.895
57.0699	37.102
57.41371	0.732
57.52686	0.881
58.04134	1.361
58.07327	1.717
58.34754	0.636
59.04915	1.113
59.12167	0.623
60.02062	6.095
60.52338	0.756
61.00729	1.937
61.02843	7.096
62.01514	3.163
63.02294	10.687
63.77311	0.614
64.02631	0.839
64.03074	1.845
65.03859	28.246
66.04195	1.052
66.04643	3.962
66.44815	0.563
67.04163	0.951
67.0497	0.688
67.05424	44.27
67.45674	0.675
68.02568	1.816
68.04951	1.939
68.05762	3.489
68.0621	4.38
68.99461	1.063
69.03352	5.163
69.06989	27.016
70.04137	3.545
70.06515	0.722
70.07326	1.773
70.07774	8.327
70.5347	0.705
71.04913	2.096
71.05901	0.56
71.08556	6.406
72.08886	0.561
73.00729	0.896
73.02843	12.833
73.04683	14.005
73.06479	1.109
73.12424	0.529
74.01511	9.864
74.03625	3.661
75.02296	10.608
75.02608	2.618
75.94359	1.224
76.01814	0.679
76.02628	0.845
76.03077	15.842
77.00533	1.558
77.0341	0.8
77.03857	97.65
77.17207	0.607
77.52431	0.654
78.03387	2.117
78.04196	6.7
78.04642	83.137
79.00102	0.956
79.04168	3.079
79.04977	7.145
79.05423	85.21
80.02567	0.655
80.0495	5.763
80.05709	0.567
80.05759	7.221
80.06206	12.5
80.99666	1.547
81.03355	3.422
81.05729	1.398
81.06541	0.821
81.0699	54.03
82.04134	4.144
82.06516	3.923
82.07324	4.586
82.07773	13.528
82.5347	0.883
83.04916	8.46
83.07296	1.083
83.08096	0.756
83.08553	18.734
84.057	3.51
84.08891	0.923
84.09339	4.737
85.00727	1.223
85.02841	5.123
85.03604	1.413
85.06483	0.787
85.10118	5.728
86.01508	1.744
86.03623	7.252
86.04382	0.711
86.14661	0.639
87.02296	4.655
87.02481	0.882
87.0441	13.038
88.01828	0.595
88.03076	1.131
88.05191	8.616
88.8766	0.5
89.02045	2.352
89.03859	25.063
89.05972	0.95
90.04196	2.425
90.04647	5.242
90.27688	1.007
90.70496	0.61
91.03606	3.213
91.04165	0.989
91.05421	246.932
92.04389	0.971
92.04948	2.339
92.05677	0.599
92.0576	20.033
92.06207	29.144
93.0335	0.771
93.05737	3.63
93.06546	1.842
93.06993	33.868
94.04136	3.938
94.06519	3.996
94.07325	1.846
94.07776	7.39
95.04918	10.497
95.07298	1.138
95.08112	0.854
95.08556	26.548
96.02056	0.764
96.04438	2.481
96.05699	5.457
96.0808	1.363
96.08888	2.512
96.09336	4.571
96.52866	0.645
97.02843	3.213
97.05228	0.744
97.06485	4.141
97.09055	0.629
97.10125	10.776
98.01505	0.519
98.03628	24.604
98.07264	2.836
98.10902	1.293
99.03961	0.761
99.0441	10.693
100.03076	1.324
101.03864	1.14
101.05975	4.48
101.08472	0.602
102.04645	19.475
102.06754	1.857
103.04164	1.315
103.04976	1.758
103.05425	51.714
104.02566	1.387
104.04951	3.142
104.05764	4.914
104.06206	103.645
105.03352	6.182
105.04477	14.9
105.05733	1.833
105.06548	8.043
105.06992	67.121
106.04137	6.738
106.06516	4.772
106.07326	6.952
106.07774	9.165
107.0447	0.917
107.04917	12.002
107.07294	2.518
107.08556	19.28
108.02058	0.764
108.0444	0.809
108.05246	0.639
108.05699	4.02
108.08076	2.01
108.08891	1.632
108.09336	3.626
108.54403	1.005
109.0285	0.922
109.06486	5.86
109.10025	1.026
109.10123	13.57
110.01511	1.139
110.03625	1.263
110.07265	2.081
110.09647	1.367
110.10459	1.126
110.10902	1.925
111.04411	3.917
111.08046	1.885
111.11682	3.359
112.08828	1.053
113.02333	0.701
113.03863	4.672
113.05971	2.069
114.04644	3.104
114.06759	15.537
114.25758	0.82
115.03901	8.698
115.05421	199.967
115.07085	1.087
115.07541	4.021
115.54708	0.555
116.0495	4.051
116.05759	19.259
116.06208	25.753
116.89748	0.612
117.05733	4.268
117.06538	2.788
117.06987	125.325
118.04129	1.645
118.06514	3.593
118.07324	11.943
118.07771	34.96
118.99146	0.738
118.99792	0.832
119.04919	3.551
119.06037	2.598
119.07296	1.782
119.08112	3.352
119.08558	39.229
120.05704	3.457
120.0808	4.133
120.08891	3.491
120.09337	6.788
121.06482	7.044
121.07603	0.662
121.08858	0.808
121.10121	16.537
122.01505	0.78
122.03621	1.851
122.05998	1.082
122.07262	1.49
122.09645	1.824
122.10452	2.209
122.10902	6.309
123.02629	0.859
123.04404	4.082
123.06787	0.727
123.07166	0.555
123.08044	2.391
123.09174	0.767
123.11684	10.298
124.0519	2.612
124.08833	0.824
124.11216	0.642
124.12467	1.815
125.02337	0.82
125.05972	2.003
125.13253	0.771
126.03114	1.976
126.04644	10.107
126.06758	10.638
127.03897	2.562
127.05426	12.475
127.07086	0.665
127.07532	1.898
128.04951	1.243
128.062	230.441
128.08322	3.37
128.16272	0.616
128.2588	0.669
129.04468	1.175
129.0573	1.986
129.0654	28.201
129.06984	170.191
129.09099	1.778
129.99959	0.724
130.06519	7.324
130.06877	1.477
130.07329	15.121
130.07774	45.561
130.24818	0.587
131.04919	6.418
131.06042	1.036
131.0685	1.154
131.07292	3.015
131.07663	1.271
131.08109	4.83
131.08553	144.179
132.05698	1.624
132.06818	1.001
132.08086	3.32
132.08893	18.534
132.09341	7.696
133.0136	4.355
133.05	0.643
133.05234	1.079
133.06485	4.866
133.07602	1.044
133.08853	1.033
133.09229	1.113
133.09666	0.744
133.1012	19.323
133.52982	0.55
134.03625	4.604
134.04724	0.586
134.05998	1.185
134.06815	0.787
134.0726	1.62
134.09642	2.062
134.10449	1.382
134.10901	4.891
134.83801	0.639
135.01042	0.592
135.04407	3.581
135.06247	2.751
135.08047	5.251
135.1124	0.72
135.11682	10.526
136.05196	2.926
136.08821	1.075
136.11205	0.864
136.12025	1.024
136.12469	3.994
136.59531	0.576
137.04178	0.732
137.05971	0.816
137.09607	1.573
137.13245	2.311
137.34059	0.568
138.12769	0.709
138.14034	1.001
138.63152	0.686
139.03896	0.961
139.05426	17.427
139.07533	1.779
140.04941	2.493
140.0575	0.993
140.06223	1.145
140.08313	0.751
141.0546	0.933
141.0571	0.677
141.06979	247.504
141.09097	1.007
142.06242	1.857
142.06514	2.998
142.07327	29.621
142.07768	129.398
143.0491	0.835
143.06032	1.276
143.07031	6.268
143.07297	5.898
143.07674	1.224
143.08109	15.687
143.08551	113.108
143.80144	0.584
143.82687	0.593
144.04633	0.59
144.05704	3.194
144.0808	5.949
144.08888	12.395
144.09335	20.05
145.06479	12.114
145.07605	1.069
145.08423	0.606
145.08855	1.755
145.1011	256.788
145.96844	0.681
146.05997	0.664
146.06807	1.757
146.07262	23.207
146.09639	1.12
146.10452	31.607
146.10896	2.023
146.9384	0.715
147.04405	1.079
147.05553	0.556
147.06555	6.092
147.07602	3.007
147.08043	19.012
147.10431	0.699
147.10785	1.797
147.11687	8.048
147.65067	0.655
147.96545	1.194
148.05177	0.977
148.07559	0.985
148.08374	1.964
148.08835	1.68
148.112	1.308
148.12012	0.932
148.1246	2.293
148.55075	0.589
149.04489	3.062
149.05966	1.661
149.06256	0.864
149.09602	1.492
149.12794	1.102
149.13251	7.267
149.23415	0.589
150.0464	2.816
150.0675	1.363
150.09947	0.743
150.14029	1.69
151.02408	1.529
151.03896	1.298
151.05418	5.27
151.06291	0.749
151.07532	2.387
151.14809	1.315
152.0468	1.31
152.06203	38.599
152.07057	0.706
152.08327	1.335
153.05463	1.37
153.05724	1.217
153.06541	6.024
153.06984	85.871
153.07843	0.798
153.09093	1.1
154.06252	3.945
154.06511	2.985
154.06862	0.837
154.0732	12.167
154.07767	36.486
155.04915	1.525
155.06035	37.319
155.07025	3.431
155.07289	0.856
155.08092	4.073
155.08546	119.108
156.0444	0.548
156.05695	0.869
156.06367	3.894
156.08075	5.545
156.08896	15.37
156.09331	143.967
157.00223	0.608
157.0648	6.116
157.08592	1.422
157.08855	2.198
157.09673	17.648
157.10115	73.264
158.06813	0.775
158.07265	6.094
158.08377	0.725
158.09634	1.933
158.10014	1.47
158.10452	10.251
158.10899	14.509
158.96669	0.875
159.04417	0.862
159.08038	7.745
159.10422	1.364
159.10785	0.868
159.11679	45.306
160.05182	0.927
160.07564	0.873
160.08383	1.083
160.08815	2.955
160.09947	0.88
160.11215	0.93
160.12019	5.008
160.12445	0.915
161.05971	2.926
161.09601	2.638
161.12804	0.654
161.13246	4.447
162.05482	0.664
162.06752	0.815
162.13576	0.806
162.14029	1.861
163.05417	2.607
163.07541	0.72
163.11176	0.826
163.14806	2.374
164.0619	2.824
164.08328	0.769
165.06985	28.81
165.1636	0.697
166.06517	2.892
166.07321	4.273
166.07764	6.272
166.09874	0.72
167.07027	0.561
167.07098	0.526
167.07291	3.714
167.08102	1.25
167.08549	17.066
168.05698	0.947
168.06818	0.846
168.08067	1.71
168.08888	2.886
168.09331	6.523
168.98819	0.586
169.06479	7.414
169.07594	1.876
169.08597	0.783
169.09683	0.889
169.10114	30.304
170.05336	0.623
170.06815	1.106
170.07259	9.399
170.07922	1.032
170.09628	2.625
170.10463	4.156
170.10895	57.186
171.0804	27.054
171.09164	0.787
171.11249	5.804
171.11676	122.676
172.08374	2.923
172.0881	2.185
172.11192	1.621
172.11559	0.938
172.1201	18.145
172.12451	6.054
173.09604	86.943
173.12346	1.966
173.13246	8.684
174.06743	0.723
174.09941	12.654
174.104	1.391
174.12767	0.708
174.13564	0.857
174.14018	0.813
175.0753	2.431
175.11169	1.496
175.14806	3.058
176.06198	2.301
176.15135	1.031
176.98529	0.858
177.06987	1.798
177.0909	0.857
177.16365	0.641
178.06502	0.636
178.07768	8.092
179.06029	2.571
179.07294	0.971
179.08093	1.589
179.08546	7.554
180.06798	0.627
180.078	1.763
180.08067	2.758
180.0889	0.821
180.09335	2.795
181.06483	1.358
181.07594	1.248
181.08591	2.487
181.08838	1.323
181.10109	4.947
182.07274	0.959
182.08397	0.94
182.09633	0.837
182.10895	2.079
183.03566	0.994
183.08041	21.622
183.09158	0.942
183.10408	1.012
183.11676	4.27
184.08374	2.332
184.08823	11.47
184.11203	1.59
184.12465	3.266
184.12662	0.591
184.89061	0.578
185.02666	1.151
185.09142	1.612
185.09607	30.264
185.13243	84.226
186.09947	4.914
186.10388	7.211
186.13583	12.894
186.14026	35.597
187.05392	0.911
187.11168	37.731
187.14359	5.797
187.14801	215.987
188.11505	6.667
188.15143	31.054
189.06981	3.564
189.11227	0.539
189.15479	2.313
189.16367	1.733
190.0775	1.11
190.09871	1.732
190.2075	0.553
191.00092	3.443
191.07034	0.58
191.07286	0.778
191.08542	3.892
191.10635	0.893
191.14313	0.828
192.00069	0.612
192.07843	0.626
192.08078	0.739
192.08888	0.619
192.09332	1.865
192.11433	0.986
192.98032	1.497
193.01659	1.137
193.04994	6.082
193.08856	1.273
193.10117	2.894
194.04973	0.633
194.09639	1.958
194.10905	1.42
195.08035	1.721
195.11674	2.317
195.3746	0.596
196.08823	0.882
196.12457	4.923
197.09604	12.953
197.1196	0.738
198.09969	3
198.10388	16.148
199.10715	2.025
199.11168	20.965
199.13278	0.637
200.04562	0.586
200.06195	0.769
200.10405	1.398
200.11493	1.586
200.11955	1.381
200.1559	1.391
201.04625	0.939
201.09077	1.087
201.12729	2.479
201.16368	1.939
202.07756	2.159
202.55443	0.592
203.07281	0.911
203.08534	2.258
203.14296	0.678
203.17921	0.683
204.09334	0.872
204.11453	1.433
205.10104	1.648
206.1046	0.852
206.1089	1.641
207.08043	0.803
207.10188	4.535
207.1167	0.958
208.07281	3.273
209.07629	0.576
209.08075	2.082
210.01108	0.729
210.1402	1.076
211.06032	1.831
211.11156	2.122
211.14813	4.337
211.7872	0.549
212.08319	4.907
212.11946	2.021
212.8723	0.653
213.06982	0.74
213.08643	0.832
213.09097	5.221
213.12735	21.156
214.09421	0.872
214.13068	2.588
214.13507	6.748
215.08543	1.4
215.13861	1.603
215.17944	0.76
217.10124	1.111
218.02255	0.714
219.11673	1.237
221.08437	3.206
222.08821	0.698
225.04286	4.352
226.0424	1.027
227.10651	0.654
227.14291	4.67
228.14633	1.045
228.15063	1.869
228.25093	0.815
229.09337	1.192
229.11957	0.843
229.15858	999
229.19514	11.333
229.22229	1.069
230.07178	0.942
230.16202	170.145
230.19855	2.257
231.16553	12.208
231.21086	3.74
232.16901	0.809
238.31836	0.647
241.19508	0.898
243.17426	2.687
244.18222	121.652
245.13254	0.767
245.18558	23.224
246.18916	2.752
248.98843	1.43
253.01674	0.666
254.4404	0.66
255.12256	1.228
257.22641	1.821
258.12518	1.352
265.02017	0.648
266.99921	2.272
272.25003	3.381
277.07782	3.011
281.05121	5.72
282.05066	0.991
287.08325	0.816
299.06161	1.699
307.86563	0.622
322.64517	0.723
341.01764	1.125
341.08661	0.725
356.06958	0.594
362.83505	0.605
380.11414	0.793
386.7171	0.589
