Mass spectrum: Traseolide; GC-EI-FT; MS; Positive
Name: 5-Acetyl-1,1,2,6-tetrametyl-3-isopropyl-dihydroindene
Class: Non-Natural Product; Methyl ketone
Formula: C18H26O
SMILES: CC1C(C2=C(C1(C)C)C=C(C(=C2)C(=O)C)C)C(C)C
InChI: InChI=1S/C18H26O/c1-10(2)17-12(4)18(6,7)16-8-11(3)14(13(5)19)9-15(16)17/h8-10,12,17H,1-7H3
Instrument: Thermo Scientific Q Exactive GC Hybrid Quadrupol-Orbitrap
Instrument type: GC-EI-FT
Ms type: MS
Ion mode: POSITIVE
Base peak: 215.1429
m/z	relative intensity
51.02296	8.872
51.05402	0.648
52.01821	1.181
52.02634	0.884
52.03078	2.354
53.00222	0.861
53.03828	0.73
53.03862	8.628
53.64036	0.628
53.88903	0.622
53.90986	1.025
54.03386	1.072
54.04642	2.624
55.01752	0.934
55.01788	18.862
55.05426	34.058
56.02567	2.129
56.04948	0.758
56.0576	0.893
56.06174	0.768
56.06207	7.372
56.90158	0.586
57.0335	2.461
57.06991	14.907
57.12769	0.98
57.52687	1.528
58.03081	0.676
58.04135	1.376
58.07324	0.741
59.04917	4.104
60.02061	5.814
60.81217	0.64
61.0073	2.341
61.02843	10.126
62.01515	3.786
62.66398	0.59
63.02295	9.641
63.75074	0.74
63.96137	0.818
64.02624	0.599
64.03079	2.545
64.8166	0.558
64.96919	0.959
65.0386	29.25
65.11116	0.608
66.04196	1.21
66.04644	5.785
66.07393	0.652
66.09219	0.624
67.04165	1.656
67.05425	51.541
68.02571	2.279
68.04948	0.601
68.05763	3.243
68.0621	5.551
68.11453	0.647
68.51053	0.59
68.79288	0.573
68.99467	0.764
69.03351	5.463
69.06991	29.111
69.09383	0.632
70.04137	4.164
70.07328	1.729
70.07776	5.997
71.0386	1.164
71.04917	2.091
71.08114	0.48
71.08557	7.896
71.1953	0.552
71.53616	0.602
72.057	0.748
72.99045	0.611
73.00728	0.996
73.02845	13.693
73.04636	0.652
73.04684	7.984
73.1254	0.672
74.01511	12.571
74.03624	4.241
74.04643	0.591
74.0501	0.619
75.02296	9.041
75.02608	2.056
75.43784	0.641
75.55724	0.681
76.03079	15.197
77.00541	0.645
77.03413	0.838
77.03857	104.006
78.03386	1.472
78.04198	5.466
78.04642	94.726
79.00101	1.259
79.04166	4.143
79.04977	4.641
79.05424	93.421
80.02567	1.211
80.04948	6.283
80.05759	6.349
80.06207	12.324
80.51109	0.548
80.99669	0.719
81.02532	0.782
81.03352	4.722
81.05286	0.613
81.05731	2.023
81.06544	1.744
81.06991	57.954
81.77702	0.615
82.03689	0.69
82.04134	4.034
82.06516	4.852
82.07328	3.567
82.07773	11.152
82.53468	1.107
83.02596	0.667
83.03855	1.032
83.04916	8.462
83.07292	1.054
83.08554	22.453
83.53627	1.384
84.04646	0.903
84.05701	3.436
84.08079	0.654
84.08888	0.842
84.09337	2.903
85.0073	1.205
85.02844	8.581
85.03604	0.757
85.0648	1.821
85.1012	5.426
86.01511	1.684
86.03624	11.313
86.10448	0.64
86.17578	0.696
86.19234	0.648
87.02298	4.207
87.0441	15.625
88.02631	0.79
88.03078	1.177
88.04742	1.569
88.05191	9.6
89.02048	3.373
89.0386	23.741
90.04202	1.706
90.04644	5.691
91.03603	1.061
91.04169	0.826
91.05422	254.58
91.07018	0.747
92.04949	1.487
92.05761	19.731
92.06209	29.744
93.03354	1.744
93.05734	2.44
93.06097	0.97
93.06545	2.349
93.06995	34.768
94.04137	6.822
94.06521	3.238
94.07325	1.271
94.07776	7.596
94.8283	0.659
95.04917	10.838
95.07295	1.03
95.08557	24.321
96.03391	0.724
96.0444	2.67
96.05257	0.664
96.05699	3.21
96.08889	1.211
96.09338	6.001
96.53548	0.773
97.02847	4.228
97.06485	3.866
97.10123	11.258
97.75657	0.713
98.01513	1.98
98.03629	31.796
98.07267	5.147
98.10459	1.05
98.10905	1.336
99.03962	1.792
99.04411	14.388
99.08042	0.879
99.9931	1.188
100.0474	1.203
100.05189	0.924
101.03862	1.803
101.05977	5.97
101.97517	0.689
102.04645	21.294
102.0676	3.716
102.96664	0.891
103.04168	0.867
103.04976	1.913
103.05426	64.342
104.02572	1.626
104.04948	3.546
104.05764	6.05
104.06207	110.732
105.03355	6.55
105.04478	16.69
105.05739	2.148
105.06546	9.871
105.06993	73.497
106.04136	7.681
106.04813	1.166
106.06518	6.3
106.07327	5.708
106.07776	9.695
107.03657	1.26
107.04918	12.756
107.06036	0.841
107.07301	3.099
107.08556	16.591
108.01241	0.648
108.04439	0.987
108.057	4.434
108.08079	1.895
108.08891	1.923
108.09337	4.559
109.02855	0.764
109.06485	7.888
109.10123	13.056
110.06004	0.816
110.07262	2.267
110.10456	1.269
110.10904	2.388
111.023	0.736
111.0441	4.849
111.08045	2.344
111.11689	4.195
112.05188	0.996
112.08834	0.627
113.02332	1.149
113.03861	3.736
113.05972	3.313
114.04198	0.853
114.04656	1.69
114.06759	19.637
114.2591	1.059
114.26034	0.688
115.03902	7.795
115.05423	200.242
115.07094	2.036
115.07539	5.123
116.04955	3.046
116.05644	0.772
116.05761	20.718
116.06209	29.81
116.72422	0.655
116.75774	0.626
117.05735	6.343
117.06102	1.092
117.06538	2.333
117.06988	137.458
117.76703	0.651
118.04134	2.938
118.05254	1.989
118.06519	3.344
118.07325	12.139
118.07773	43.723
118.10293	0.614
118.9915	0.987
118.99803	1.175
119.04924	3.075
119.06038	1.753
119.073	1.952
119.08113	3.34
119.08559	38.442
120.05701	3.839
120.08084	4.811
120.08891	4.288
120.0934	6.726
121.02843	1.211
121.0648	6.689
121.08857	0.976
121.10121	18.862
121.47742	0.632
121.99274	0.711
122.03628	2.406
122.05999	0.955
122.06822	0.865
122.07262	2.781
122.09644	2.433
122.10455	2.18
122.10902	3.11
123.04408	5.374
123.08044	4.262
123.11684	7.016
124.03929	0.949
124.05196	2.209
124.08825	0.678
124.11214	1.286
124.12029	0.945
124.12469	0.824
124.13921	0.763
125.02335	2.486
125.0386	1.697
125.05975	3.181
125.13245	1.262
126.03114	2.261
126.04647	9.723
126.06757	15.697
127.03899	3.483
127.04978	1.489
127.05424	15.671
127.07092	1.203
127.07526	1.149
127.11166	0.797
128.04948	1.754
128.05772	2.898
128.06201	242.945
128.08318	3.988
129.04475	1.708
129.05736	2.839
129.06544	26.527
129.06984	198.066
129.09099	1.59
130.04161	0.664
130.06522	9.154
130.06885	1.306
130.07329	22.127
130.07776	42.452
130.99149	0.809
131.04919	9.737
131.06851	1.202
131.07292	3.042
131.08112	4.439
131.08551	352.509
131.86276	0.616
132.05257	1.006
132.05701	2.021
132.06822	0.935
132.08087	3.302
132.08893	36.343
132.09338	19.502
133.0136	3.491
133.05209	0.877
133.06483	6.526
133.07607	1.431
133.08859	0.919
133.09225	1.49
133.09669	2.001
133.10121	16.841
134.03629	7.618
134.05994	1.213
134.07268	3.029
134.09644	2.463
134.10457	2.152
134.10909	3.48
135.03961	1.241
135.0441	6.628
135.06245	0.93
135.08041	5.642
135.11684	8.166
136.05191	3.18
136.08377	0.727
136.08826	1.112
136.12465	2.004
136.84218	0.646
137.00862	0.861
137.03859	1.053
137.04167	0.946
137.05981	1.335
137.09601	1.504
137.13252	4.293
138.04634	0.933
138.13586	1.039
139.03896	1.21
139.05423	16.186
139.07536	3.9
139.14813	0.768
139.81506	0.755
140.04948	2.041
140.05748	1.723
140.06204	3.009
140.08315	1.05
141.05466	0.789
141.05734	0.742
141.06981	279.743
141.09108	1.076
141.45572	0.609
142.0625	2.303
142.0652	4.151
142.0733	32.17
142.07767	258.467
142.24985	0.614
143.06038	0.951
143.06874	1.005
143.07031	8.292
143.07294	5.511
143.07669	2.879
143.0811	29.956
143.08553	136.049
144.05704	4.119
144.06819	0.645
144.07634	0.712
144.08081	7.253
144.08437	1.324
144.08893	18.301
144.09184	1.186
144.09337	16.909
145.06479	17.075
145.0761	1.117
145.08859	1.836
145.09227	1.083
145.09669	2.308
145.10118	71.246
146.05998	0.611
146.06816	2.114
146.07263	32.731
146.09639	1.353
146.10452	7.515
146.10901	2.424
146.93842	0.61
147.04404	2.458
147.06557	4.371
147.06779	0.658
147.07593	2.625
147.08044	24.367
147.11687	9.353
147.61552	0.646
147.96547	1.146
148.05185	1.547
148.08372	1.791
148.08827	0.836
148.12021	1.468
148.12468	1.364
149.02336	1.09
149.04486	2.071
149.0598	2.172
149.06244	0.655
149.09618	1.342
149.13251	4.565
149.23741	0.723
149.43143	0.692
150.0464	2.555
150.0676	1.843
150.13568	0.865
150.14041	0.87
151.02417	2.051
151.05434	4.75
151.07539	2.928
151.14812	1.196
152.04674	0.974
152.04951	0.809
152.06207	40.462
152.07057	0.812
152.08316	2.13
153.0547	0.791
153.06546	4.373
153.06987	70.249
153.08644	0.732
153.09102	0.94
154.06248	6.807
154.06512	3.507
154.07327	11.037
154.07768	31.431
155.04912	2.064
155.06035	41.982
155.0658	0.843
155.07022	2.587
155.07281	0.978
155.08118	3.621
155.08549	80.117
155.47653	0.67
156.05693	2.034
156.06375	3.916
156.07634	0.592
156.08073	4.972
156.08897	12.23
156.09334	117.822
157.0648	11.634
157.07608	1.622
157.08594	0.771
157.08865	2.67
157.09683	12.593
157.10114	172.914
157.13728	0.643
158.06808	1.118
158.07262	5.519
158.08369	1.134
158.09642	2.39
158.10016	0.677
158.10452	21.28
158.10899	14.847
158.88901	0.837
158.96655	1.109
159.04404	0.978
159.06787	1.214
159.08046	8.751
159.10439	0.973
159.10789	1.528
159.11243	1.623
159.11682	60.787
160.05182	0.894
160.08383	0.608
160.08826	2.423
160.11197	0.833
160.12015	8.524
160.12459	2.246
160.9539	0.7
161.04709	1.04
161.05972	4.398
161.09602	3.896
161.13254	4.461
162.06744	1.079
162.10379	0.751
162.13597	0.634
162.14032	1.674
163.05426	1.621
163.07527	2.565
163.11159	0.735
163.14804	1
164.06201	3.544
164.08318	1.728
164.14343	0.714
165.06989	36.614
166.06516	2.541
166.07323	4.986
166.07768	7.732
166.09888	0.675
167.07025	0.942
167.07292	2.138
167.0811	1.408
167.08549	25.456
168.05698	1.03
168.07637	0.602
168.08075	2.082
168.08894	3.859
168.09334	15.118
168.9882	0.764
169.06479	10.411
169.07611	4.156
169.08871	0.646
169.09674	1.673
169.10115	31.853
169.75005	0.574
170.0681	1.501
170.07265	12.631
170.09178	0.575
170.09637	2.367
170.1046	3.454
170.10896	18.084
171.01088	0.848
171.07596	1.057
171.0804	22.835
171.09157	1.124
171.11671	244.238
172.07561	1.014
172.08379	1.757
172.08823	2.4
172.11211	1.188
172.12016	38.5
172.12462	35.122
172.3308	0.607
173.0961	30.876
173.13237	429.007
173.97578	0.621
174.06746	1.336
174.09943	4.706
174.1358	64.68
175.07535	1.867
175.13921	5.518
175.14813	2.593
176.06195	2.774
176.11951	0.618
177.06989	0.763
177.09097	1.132
178.06505	0.655
178.07767	8.152
178.38206	0.6
178.96457	0.651
179.03384	2.156
179.06033	2.122
179.07294	0.657
179.08092	2.076
179.08548	8.866
179.63232	0.835
180.04169	0.834
180.07802	1.406
180.08054	1.361
180.08888	1.18
180.09328	3.17
180.7928	0.577
181.06474	1.657
181.08572	1.985
181.08844	1.176
181.1011	6.515
181.22009	0.721
181.758	0.673
182.07257	1.741
182.08365	0.809
182.09642	1.294
182.1046	1.263
182.10901	6.223
183.03581	0.779
183.08044	18.206
183.10426	1.761
183.11227	0.933
183.11679	17.053
184.08371	2.386
184.08824	20.819
184.112	2.421
184.12007	1.595
184.12463	10.058
185.09154	2.508
185.09605	93.959
185.10738	0.783
185.12804	1.03
185.13248	18.278
186.06126	0.653
186.0994	14.153
186.10403	3.719
186.13576	2.956
186.14029	2.433
187.10294	0.811
187.11172	24.013
187.14813	5.163
188.11508	3.619
188.11945	3.143
188.15588	0.718
189.06979	5.013
189.12758	0.956
189.16365	1.026
190.06496	0.61
190.07758	0.761
190.09879	1.58
190.17166	1.025
191.00111	3.107
191.07285	1.814
191.08553	3.958
191.1066	2.048
191.14293	1.699
192.08075	1.265
192.09343	1.056
192.11452	0.915
192.98027	1.279
192.99786	1.117
193.04976	2.619
193.08826	0.7
193.10117	3.339
194.09628	1.285
194.10898	1.208
195.08041	1.668
195.11687	2.392
196.112	0.782
196.12465	4.993
197.09605	6.604
197.1324	6.311
198.10391	2.803
198.12782	0.87
198.1402	5.134
199.03058	0.98
199.11171	26.268
199.14375	1.119
199.14807	7.665
200.06181	0.772
200.08325	0.689
200.11522	3.37
200.11954	7.712
200.15163	0.723
200.15584	2.741
201.04628	0.748
201.06975	0.997
201.09087	1.435
201.12283	0.7
201.1273	16.568
201.16374	3.157
202.07771	2.869
202.13062	2.369
202.17151	0.878
202.33017	0.602
203.07288	0.716
203.08537	2.021
203.17952	0.864
204.11444	1.647
205.10114	0.923
206.10899	1.312
207.10202	3.637
208.07304	4.794
208.12468	0.678
209.08075	2.453
209.09608	1.072
209.13258	0.862
209.22163	0.645
210.14029	1.989
210.99086	0.599
211.11172	1.939
212.08313	6.525
212.11964	1.281
213.05765	0.914
213.08643	0.813
213.091	7.363
213.12735	10.989
213.16374	39.19
214.13049	1.967
214.13519	29.742
214.16708	6.218
214.31714	0.84
215.08569	1.652
215.10667	2.234
215.14294	999
215.17955	2.42
215.20082	1.557
215.52554	0.671
215.97365	0.753
216.14638	169.218
216.55365	0.604
217.10126	0.813
217.14722	1.307
217.14984	11.919
217.19502	1.097
218.1532	0.717
219.11687	1.338
220.1199	0.589
220.12495	0.701
221.08456	1.392
223.08888	0.571
225.04298	4.209
225.12735	0.942
225.16364	2.37
225.5786	0.711
226.09877	1.003
227.10666	0.985
227.12802	0.931
227.14313	6.176
227.17947	1.241
228.09331	0.804
228.14636	0.787
228.15086	2.161
228.18723	2.361
229.19516	13.196
230.13017	0.945
230.19833	1.848
231.21078	1.756
233.13275	0.768
241.15884	4.045
242.11737	0.68
242.16205	0.685
243.17441	106.458
244.17778	20.529
245.18114	2.081
245.22668	0.643
246.48877	0.714
248.98854	1.004
253.01671	0.682
253.10149	0.684
255.12296	0.922
255.21072	0.767
256.18234	2.918
257.19012	1.358
258.12518	2.502
258.19797	57.873
259.20132	12.713
265.0199	1.013
266.9993	1.888
270.23431	0.784
272.24991	2.503
274.52948	1.014
277.07776	2.345
278.08139	0.87
281.05127	6.179
282.05115	1.354
283.04785	0.699
285.4379	0.573
290.79028	0.714
292.65771	0.646
299.06125	0.918
301.37314	0.633
323.62357	0.597
327.03561	0.953
327.4216	0.63
348.22409	0.599
360.10648	0.674
376.05106	0.775
390.55667	0.621
