Mass spectrum: Benzyldimethyltetradecylammonium; LC-ESI-ITFT; MS2; CE: 10%; R=15000; [M]+
Name: Benzyldimethyltetradecylammonium
Name: benzyl-dimethyl-tetradecylazanium
Formula: C23H42N
Exact mass: 332.331176764091
SMILES: CCCCCCCCCCCCCC[N+](C)(C)CC1=CC=CC=C1
InChI: InChI=1S/C23H42N/c1-4-5-6-7-8-9-10-11-12-13-14-18-21-24(2,3)22-23-19-16-15-17-20-23/h15-17,19-20H,4-14,18,21-22H2,1-3H3/q+1
Instrument: LTQ Orbitrap XL Thermo Scientific
Instrument type: LC-ESI-ITFT
Ms type: MS2
Ion mode: POSITIVE
Ionization: ESI
Fragmentation mode: HCD
Collision energy: 10 % (nominal)
Resolution: 15000
Column name: Kinetex Evo C18 2.6 um 50 x 2.1 mm
Retention time: 12.031 min
Base peak: 332.3316
Precursor m/z: 332.3312
Precursor type: [M]+
Precursor intensity: 16831178
m/z	relative intensity	assigned
91.0542	2	C7H7+
332.3308	999	C23H42N+
