Mass spectrum: Didecyldimethylammonium; LC-ESI-ITFT; MS2; CE: 50%; R=15000; [M]+
Name: Didecyldimethylammonium
Name: didecyl(dimethyl)azanium
Formula: C22H48N
Exact mass: 326.378126956091
SMILES: CCCCCCCCCC[N+](C)(C)CCCCCCCCCC
InChI: InChI=1S/C22H48N/c1-5-7-9-11-13-15-17-19-21-23(3,4)22-20-18-16-14-12-10-8-6-2/h5-22H2,1-4H3/q+1
Instrument: LTQ Orbitrap XL Thermo Scientific
Instrument type: LC-ESI-ITFT
Ms type: MS2
Ion mode: POSITIVE
Ionization: ESI
Fragmentation mode: HCD
Collision energy: 50 % (nominal)
Resolution: 15000
Column name: Kinetex Evo C18 2.6 um 50 x 2.1 mm
Retention time: 12.432 min
Base peak: 326.379
Precursor m/z: 326.3781
Precursor type: [M]+
Precursor intensity: 4282216.5
m/z	relative intensity	assigned
57.0698	28	C4H9+
58.065	15	C3H8N+
71.0856	13	C5H11+
85.1013	10	C6H13+
184.2062	23	C12H26N+
186.2219	313	C12H28N+
326.3788	999	C22H48N+
