Mass spectrum: Benzyldimethylhexadecylammonium; LC-ESI-ITFT; MS2; CE: 70%; R=15000; [M]+
Name: Benzyldimethylhexadecylammonium
Name: Cetalkonium
Name: benzyl-hexadecyl-dimethylazanium
Formula: C25H46N
Exact mass: 360.362476892091
SMILES: CCCCCCCCCCCCCCCC[N+](C)(C)CC1=CC=CC=C1
InChI: InChI=1S/C25H46N/c1-4-5-6-7-8-9-10-11-12-13-14-15-16-20-23-26(2,3)24-25-21-18-17-19-22-25/h17-19,21-22H,4-16,20,23-24H2,1-3H3/q+1
Instrument: LTQ Orbitrap XL Thermo Scientific
Instrument type: LC-ESI-ITFT
Ms type: MS2
Ion mode: POSITIVE
Ionization: ESI
Fragmentation mode: HCD
Collision energy: 70 % (nominal)
Resolution: 15000
Column name: Kinetex Evo C18 2.6 um 50 x 2.1 mm
Retention time: 12.658 min
Base peak: 360.3627
Precursor m/z: 360.3625
Precursor type: [M]+
Precursor intensity: 39930128
m/z	relative intensity	assigned
57.0696	12	C4H9+
58.0649	252	C3H8N+
69.0696	1	C5H9+
71.0854	4	C5H11+
72.0806	6	C4H10N+
91.0541	999	C7H7+
268.2995	93	C18H38N+
