Mass spectrum: Michler`s ketone; LC-ESI-ITFT; MS2; CE: 30%; R=15000; [M]+
Name: Michler`s ketone
Name: bis[4-(dimethylamino)phenyl]methanone
Formula: C17H20N2O
Exact mass: 268.15756326
SMILES: CN(C)C1=CC=C(C=C1)C(=O)C1=CC=C(C=C1)N(C)C
InChI: InChI=1S/C17H20N2O/c1-18(2)15-9-5-13(6-10-15)17(20)14-7-11-16(12-8-14)19(3)4/h5-12H,1-4H3
Instrument: LTQ Orbitrap XL Thermo Scientific
Instrument type: LC-ESI-ITFT
Ms type: MS2
Ion mode: POSITIVE
Ionization: ESI
Fragmentation mode: HCD
Collision energy: 30 % (nominal)
Resolution: 15000
Column name: Kinetex Evo C18 2.6 um 50 x 2.1 mm
Retention time: 12.585 min
Base peak: 116.9858
Precursor m/z: 268.157
Precursor type: [M]+
Precursor intensity: 2543358
m/z	relative intensity	assigned
79.0542	51	C6H7+
93.0695	19	C7H9+
120.0808	999	C8H10N+
