Mass spectrum: Benzethonium; LC-ESI-ITFT; MS2; CE: 60%; R=15000; [M]+
Name: Benzethonium
Name: benzyl-dimethyl-[2-[2-[4-(2,4,4-trimethylpentan-2-yl)phenoxy]ethoxy]ethyl]azanium
Formula: C27H42NO2
Exact mass: 412.321006004091
SMILES: CC(C)(C)CC(C)(C)C1=CC=C(OCCOCC[N+](C)(C)CC2=CC=CC=C2)C=C1
InChI: InChI=1S/C27H42NO2/c1-26(2,3)22-27(4,5)24-13-15-25(16-14-24)30-20-19-29-18-17-28(6,7)21-23-11-9-8-10-12-23/h8-16H,17-22H2,1-7H3/q+1
Instrument: LTQ Orbitrap XL Thermo Scientific
Instrument type: LC-ESI-ITFT
Ms type: MS2
Ion mode: POSITIVE
Ionization: ESI
Fragmentation mode: HCD
Collision energy: 60 % (nominal)
Resolution: 15000
Column name: Kinetex Evo C18 2.6 um 50 x 2.1 mm
Retention time: 11.407 min
Base peak: 412.322
Precursor m/z: 412.321
Precursor type: [M]+
Precursor intensity: 67167928
m/z	relative intensity	assigned
70.0649	5	C4H8N+
72.0805	490	C4H10N+
84.0807	3	C5H10N+
86.0598	6	C4H8NO+
88.0756	4	C4H10NO+
91.054	999	C7H7+
100.0756	4	C5H10NO+
105.07	3	C8H9+
114.0911	4	C6H12NO+
116.1068	12	C6H14NO+
118.0777	10	C9H10+
121.0647	6	C8H9O+
134.0961	5	C9H12N+
135.0805	11	C9H11O+
149.0956	8	C10H13O+
177.1269	3	C12H17O+
208.1332	10	C12H18NO2+
233.1901	17	C16H25O+
320.2583	102	C20H34NO2+
