Mass spectrum: Amidosulfobetaine-14; LC-ESI-ITFT; MS2; CE: 40%; R=15000; [M]+
Name: Amidosulfobetaine-14
Name: 3-[Dimethyl[3-(tetradecanoylamino)propyl]aminio]-1-propanesulfonate
Name: dimethyl-(3-sulfopropyl)-[3-(tetradecanoylamino)propyl]azanium
Formula: C22H47N2O4S
Exact mass: 435.325105404091
SMILES: CCCCCCCCCCCCCC(=O)NCCC[N+](C)(C)CCCS(O)(=O)=O
InChI: InChI=1S/C22H46N2O4S/c1-4-5-6-7-8-9-10-11-12-13-14-17-22(25)23-18-15-19-24(2,3)20-16-21-29(26,27)28/h4-21H2,1-3H3,(H-,23,25,26,27,28)/p+1
Instrument: LTQ Orbitrap XL Thermo Scientific
Instrument type: LC-ESI-ITFT
Ms type: MS2
Ion mode: POSITIVE
Ionization: ESI
Fragmentation mode: HCD
Collision energy: 40 % (nominal)
Resolution: 15000
Column name: Kinetex Evo C18 2.6 um 50 x 2.1 mm
Retention time: 13.388 min
Base peak: 371.3275
Precursor m/z: 435.3251
Precursor type: [M]+
Precursor intensity: 2419737.5
m/z	relative intensity	assigned
57.0697	1	C4H9+
58.065	1	C3H8N+
71.0855	1	C5H11+
81.0699	1	C6H9+
85.1012	1	C6H13+
95.0857	3	C7H11+
97.1013	1	C7H13+
109.1014	1	C8H13+
111.1172	1	C8H15+
123.1172	1	C9H15+
211.2062	3	C14H27O+
225.1272	1	C16H17O+
268.2638	999	C11H40O4S+
