Mass spectrum: Benzethonium; LC-ESI-ITFT; MS2; CE: 40%; R=15000; [M]+
Name: Benzethonium
Name: benzyl-dimethyl-[2-[2-[4-(2,4,4-trimethylpentan-2-yl)phenoxy]ethoxy]ethyl]azanium
Formula: C27H42NO2
Exact mass: 412.321006004091
SMILES: CC(C)(C)CC(C)(C)C1=CC=C(OCCOCC[N+](C)(C)CC2=CC=CC=C2)C=C1
InChI: InChI=1S/C27H42NO2/c1-26(2,3)22-27(4,5)24-13-15-25(16-14-24)30-20-19-29-18-17-28(6,7)21-23-11-9-8-10-12-23/h8-16H,17-22H2,1-7H3/q+1
Instrument: LTQ Orbitrap XL Thermo Scientific
Instrument type: LC-ESI-ITFT
Ms type: MS2
Ion mode: POSITIVE
Ionization: ESI
Fragmentation mode: HCD
Collision energy: 40 % (nominal)
Resolution: 15000
Column name: Kinetex Evo C18 2.6 um 50 x 2.1 mm
Retention time: 11.407 min
Base peak: 412.322
Precursor m/z: 412.321
Precursor type: [M]+
Precursor intensity: 67167928
m/z	relative intensity	assigned
70.0649	2	C4H8N+
72.0805	999	C4H10N+
91.0541	513	C7H7+
105.0696	2	C8H9+
116.107	29	C6H14NO+
134.0962	2	C9H12N+
136.112	2	C9H14N+
208.1331	4	C12H18NO2+
233.19	8	C16H25O+
277.216	4	C18H29O2+
300.1958	115	C19H26NO2+
320.2584	566	C20H34NO2+
412.3206	571	C27H42NO2+
