Mass spectrum: Amidosulfobetaine-14; LC-ESI-ITFT; MS2; CE: 60%; R=15000; [M]+
Name: Amidosulfobetaine-14
Name: 3-[Dimethyl[3-(tetradecanoylamino)propyl]aminio]-1-propanesulfonate
Name: dimethyl-(3-sulfopropyl)-[3-(tetradecanoylamino)propyl]azanium
Formula: C22H47N2O4S
Exact mass: 435.325105404091
SMILES: CCCCCCCCCCCCCC(=O)NCCC[N+](C)(C)CCCS(O)(=O)=O
InChI: InChI=1S/C22H46N2O4S/c1-4-5-6-7-8-9-10-11-12-13-14-17-22(25)23-18-15-19-24(2,3)20-16-21-29(26,27)28/h4-21H2,1-3H3,(H-,23,25,26,27,28)/p+1
Instrument: LTQ Orbitrap XL Thermo Scientific
Instrument type: LC-ESI-ITFT
Ms type: MS2
Ion mode: POSITIVE
Ionization: ESI
Fragmentation mode: HCD
Collision energy: 60 % (nominal)
Resolution: 15000
Column name: Kinetex Evo C18 2.6 um 50 x 2.1 mm
Retention time: 13.388 min
Base peak: 371.3275
Precursor m/z: 435.3251
Precursor type: [M]+
Precursor intensity: 2419737.5
m/z	relative intensity	assigned
57.0697	270	C4H9+
58.065	72	C3H8N+
67.0542	24	C5H7+
69.0699	27	C5H9+
71.0855	181	C5H11+
81.0701	51	C6H9+
83.0857	25	C6H11+
85.1013	129	C6H13+
95.0857	110	C7H11+
97.1014	24	C7H13+
109.1015	52	C8H13+
111.117	22	C8H15+
123.1172	21	C9H15+
137.1325	14	C10H17+
158.3393	18	C4H46O4+
211.2048	32	C14H27O+
268.264	999	C11H40O4S+
