Mass spectrum: Didecyldimethylammonium; LC-ESI-ITFT; MS2; CE: 70%; R=15000; [M]+
Name: Didecyldimethylammonium
Name: didecyl(dimethyl)azanium
Formula: C22H48N
Exact mass: 326.378126956091
SMILES: CCCCCCCCCC[N+](C)(C)CCCCCCCCCC
InChI: InChI=1S/C22H48N/c1-5-7-9-11-13-15-17-19-21-23(3,4)22-20-18-16-14-12-10-8-6-2/h5-22H2,1-4H3/q+1
Instrument: LTQ Orbitrap XL Thermo Scientific
Instrument type: LC-ESI-ITFT
Ms type: MS2
Ion mode: POSITIVE
Ionization: ESI
Fragmentation mode: HCD
Collision energy: 70 % (nominal)
Resolution: 15000
Column name: Kinetex Evo C18 2.6 um 50 x 2.1 mm
Retention time: 12.161 min
Base peak: 284.3318
Precursor m/z: 326.3781
Precursor type: [M]+
Precursor intensity: 267514.09
m/z	relative intensity	assigned
57.0699	598	C4H9+
58.0652	185	C3H8N+
71.0858	178	C5H11+
184.2064	91	C12H26N+
186.2221	999	C12H28N+
