Mass spectrum: Benzethonium; LC-ESI-ITFT; MS2; CE: 90%; R=15000; [M]+
Name: Benzethonium
Name: benzyl-dimethyl-[2-[2-[4-(2,4,4-trimethylpentan-2-yl)phenoxy]ethoxy]ethyl]azanium
Formula: C27H42NO2
Exact mass: 412.321006004091
SMILES: CC(C)(C)CC(C)(C)C1=CC=C(OCCOCC[N+](C)(C)CC2=CC=CC=C2)C=C1
InChI: InChI=1S/C27H42NO2/c1-26(2,3)22-27(4,5)24-13-15-25(16-14-24)30-20-19-29-18-17-28(6,7)21-23-11-9-8-10-12-23/h8-16H,17-22H2,1-7H3/q+1
Instrument: LTQ Orbitrap XL Thermo Scientific
Instrument type: LC-ESI-ITFT
Ms type: MS2
Ion mode: POSITIVE
Ionization: ESI
Fragmentation mode: HCD
Collision energy: 90 % (nominal)
Resolution: 15000
Column name: Kinetex Evo C18 2.6 um 50 x 2.1 mm
Retention time: 11.416 min
Base peak: 412.3211
Precursor m/z: 412.321
Precursor type: [M]+
Precursor intensity: 77682624
m/z	relative intensity	assigned
57.0696	74	C4H9+
58.0649	65	C3H8N+
65.0384	9	C5H5+
70.065	17	C4H8N+
72.0807	186	C4H10N+
84.0808	15	C5H10N+
85.0884	2	C5H11N+
86.0602	5	C4H8NO+
87.0678	4	C4H9NO+
88.0761	2	C4H10NO+
90.0464	1	C7H6+
91.0542	999	C7H7+
93.0698	3	C7H9+
105.0698	7	C8H9+
107.049	5	C7H7O+
107.0857	2	C8H11+
109.0649	2	C7H9O+
116.1069	3	C6H14NO+
118.0777	33	C9H10+
119.0853	3	C9H11+
121.0647	6	C8H9O+
134.0964	6	C9H12N+
135.0803	6	C9H11O+
