Mass spectrum: (Methoxymethyl)triphenylphosphonium; LC-ESI-ITFT; MS2; CE: 90%; R=15000; [M]+
Name: (Methoxymethyl)triphenylphosphonium
Name: methoxymethyl(triphenyl)phosphanium
Formula: C20H20OP
Exact mass: 307.124628310091
SMILES: COC[P+](C1=CC=CC=C1)(C1=CC=CC=C1)C1=CC=CC=C1
InChI: InChI=1S/C20H20OP/c1-21-17-22(18-11-5-2-6-12-18,19-13-7-3-8-14-19)20-15-9-4-10-16-20/h2-16H,17H2,1H3/q+1
Instrument: LTQ Orbitrap XL Thermo Scientific
Instrument type: LC-ESI-ITFT
Ms type: MS2
Ion mode: POSITIVE
Ionization: ESI
Fragmentation mode: HCD
Collision energy: 90 % (nominal)
Resolution: 15000
Column name: Kinetex Evo C18 2.6 um 50 x 2.1 mm
Retention time: 7.556 min
Base peak: 307.1254
Precursor m/z: 307.1246
Precursor type: [M]+
Precursor intensity: 25181494
m/z	relative intensity	assigned
79.0543	5	C6H7+
91.0543	12	C7H7+
107.0045	47	C6H4P+
108.0124	203	C6H5P+
141.0699	19	C11H9+
152.0621	40	C12H8+
154.0774	6	C12H10+
159.0358	5	C10H8P+
165.0698	15	C13H9+
170.0282	12	C11H7P+
183.0357	999	C12H8P+
185.0513	100	C12H10P+
195.0361	3	C13H8P+
196.0437	5	C13H9P+
197.051	3	C13H10P+
199.0665	7	C13H12P+
261.0825	69	C18H14P+
262.0909	6	C18H15P+
263.0983	12	C18H16P+
277.1141	12	C19H18P+
