Mass spectrum: Hexadecylpyridinium; LC-ESI-ITFT; MS2; CE: 80%; R=15000; [M]+
Name: Hexadecylpyridinium
Name: Cetylpyridinium
Name: 1-hexadecylpyridin-1-ium
Formula: C21H38N
Exact mass: 304.299876636091
SMILES: CCCCCCCCCCCCCCCC[N+]1=CC=CC=C1
InChI: InChI=1S/C21H38N/c1-2-3-4-5-6-7-8-9-10-11-12-13-14-16-19-22-20-17-15-18-21-22/h15,17-18,20-21H,2-14,16,19H2,1H3/q+1
Instrument: LTQ Orbitrap XL Thermo Scientific
Instrument type: LC-ESI-ITFT
Ms type: MS2
Ion mode: POSITIVE
Ionization: ESI
Fragmentation mode: HCD
Collision energy: 80 % (nominal)
Resolution: 15000
Column name: Kinetex Evo C18 2.6 um 50 x 2.1 mm
Retention time: 11.189 min
Base peak: 304.3003
Precursor m/z: 304.2999
Precursor type: [M]+
Precursor intensity: 57930064
m/z	relative intensity	assigned
57.0697	10	C4H9+
58.0649	208	C3H8N+
65.0385	3	C5H5+
69.0698	1	C5H9+
71.0729	2	C4H9N+
71.0855	3	C5H11+
72.0807	6	C4H10N+
91.0542	999	C7H7+
212.2371	38	C14H30N+
