Mass spectrum: Benzethonium; LC-ESI-ITFT; MS2; CE: 80%; R=15000; [M]+
Name: Benzethonium
Name: benzyl-dimethyl-[2-[2-[4-(2,4,4-trimethylpentan-2-yl)phenoxy]ethoxy]ethyl]azanium
Formula: C27H42NO2
Exact mass: 412.321006004091
SMILES: CC(C)(C)CC(C)(C)C1=CC=C(OCCOCC[N+](C)(C)CC2=CC=CC=C2)C=C1
InChI: InChI=1S/C27H42NO2/c1-26(2,3)22-27(4,5)24-13-15-25(16-14-24)30-20-19-29-18-17-28(6,7)21-23-11-9-8-10-12-23/h8-16H,17-22H2,1-7H3/q+1
Instrument: LTQ Orbitrap XL Thermo Scientific
Instrument type: LC-ESI-ITFT
Ms type: MS2
Ion mode: POSITIVE
Ionization: ESI
Fragmentation mode: HCD
Collision energy: 80 % (nominal)
Resolution: 15000
Column name: Kinetex Evo C18 2.6 um 50 x 2.1 mm
Retention time: 11.416 min
Base peak: 412.3211
Precursor m/z: 412.321
Precursor type: [M]+
Precursor intensity: 77682624
m/z	relative intensity	assigned
57.0696	87	C4H9+
58.0649	61	C3H8N+
65.0385	4	C5H5+
69.0697	1	C5H9+
70.065	14	C4H8N+
72.0807	250	C4H10N+
84.0808	10	C5H10N+
85.0885	3	C5H11N+
86.0601	9	C4H8NO+
87.0679	5	C4H9NO+
88.0758	3	C4H10NO+
91.0542	999	C7H7+
93.0697	3	C7H9+
100.076	3	C5H10NO+
105.0698	8	C8H9+
107.0489	3	C7H7O+
107.0855	4	C8H11+
109.0643	2	C7H9O+
114.0912	2	C6H12NO+
116.1069	3	C6H14NO+
118.0776	30	C9H10+
119.0853	4	C9H11+
121.0647	8	C8H9O+
134.0964	6	C9H12N+
135.0805	9	C9H11O+
135.1166	2	C10H15+
149.096	2	C10H13O+
204.1382	1	C13H18NO+
