Mass spectrum: Anastrozole; LC-ESI-ITFT; MS2; CE: 40%; R=15000; [M]+
Name: Anastrozole
Name: 2-[3-(2-cyanopropan-2-yl)-5-(1,2,4-triazol-1-ylmethyl)phenyl]-2-methylpropanenitrile
Formula: C17H19N5
Exact mass: 293.164045608
SMILES: CC(C)(C#N)C1=CC(=CC(CN2C=NC=N2)=C1)C(C)(C)C#N
InChI: InChI=1S/C17H19N5/c1-16(2,9-18)14-5-13(8-22-12-20-11-21-22)6-15(7-14)17(3,4)10-19/h5-7,11-12H,8H2,1-4H3
Instrument: LTQ Orbitrap XL Thermo Scientific
Instrument type: LC-ESI-ITFT
Ms type: MS2
Ion mode: POSITIVE
Ionization: ESI
Fragmentation mode: HCD
Collision energy: 40 % (nominal)
Resolution: 15000
Column name: Kinetex Evo C18 2.6 um 50 x 2.1 mm
Retention time: 8.794 min
Base peak: 293.1065
Precursor m/z: 293.1635
Precursor type: [M]+
Precursor intensity: 58793668
m/z	relative intensity	assigned
57.0696	282	C4H9+
67.054	20	C5H7+
69.0697	999	C5H9+
70.0774	9	C5H10+
82.0525	80	C4H6N2+
137.1074	47	C8H13N2+
161.0954	17	C9H11N3+
166.1093	52	C7H12N5+
